MODEL 1
REMARK VINA RESULT:     -10.7      0.000      0.000
REMARK  Name = ./output_folder/5n2f_ligand.pdb
REMARK  13 active torsions:
REMARK  status: ('A' for Active; 'I' for Inactive)
REMARK    1  A    between atoms: N1_1  and  C1_2
REMARK    2  A    between atoms: N1_1  and  C24_30
REMARK    3  A    between atoms: C1_2  and  C2_3
REMARK    4  A    between atoms: C5_6  and  O1_7
REMARK    5  A    between atoms: O1_7  and  C6_8
REMARK    6  A    between atoms: C6_8  and  C7_9
REMARK    7  A    between atoms: C8_10  and  C9_11
REMARK    8  A    between atoms: C10_12  and  C11_13
REMARK    9  A    between atoms: C24_30  and  C25_31
REMARK   10  A    between atoms: C25_31  and  O4_32
REMARK   11  A    between atoms: C25_31  and  C26_33
REMARK   12  A    between atoms: C26_33  and  C27_34
REMARK   13  A    between atoms: C27_34  and  O6_36
REMARK                            x       y       z     vdW  Elec       q    Type
REMARK                         _______ _______ _______ _____ _____    ______ ____
ROOT
ATOM      1  C2  UNL A   1      33.326   8.358 136.244  0.00  0.00    +0.000 A 
ATOM      2  C3  UNL A   1      32.727   8.260 134.983  0.00  0.00    +0.000 A 
ATOM      3  C4  UNL A   1      32.820   9.288 134.042  0.00  0.00    +0.000 A 
ATOM      4  C5  UNL A   1      33.534  10.446 134.350  0.00  0.00    +0.000 A 
ATOM      5  C22 UNL A   1      34.134  10.547 135.610  0.00  0.00    +0.000 A 
ATOM      6  C23 UNL A   1      34.031   9.526 136.553  0.00  0.00    +0.000 A 
ATOM      7  F1  UNL A   1      34.829  11.648 135.936  0.00  0.00    +0.000 F 
ATOM      8  F2  UNL A   1      32.029   7.160 134.654  0.00  0.00    +0.000 F 
ENDROOT
BRANCH   1   9
ATOM      9  C1  UNL A   1      33.178   7.247 137.250  0.00  0.00    +0.000 C 
BRANCH   9  10
ATOM     10  N1  UNL A   1      33.570   7.707 138.581  0.00  0.00    +0.000 NA
ATOM     11  H1  UNL A   1      34.197   7.004 138.976  0.00  0.00    +0.000 HD
BRANCH  10  12
ATOM     12  C24 UNL A   1      32.421   7.857 139.483  0.00  0.00    +0.000 C 
BRANCH  12  13
ATOM     13  C25 UNL A   1      31.929   9.311 139.653  0.00  0.00    +0.000 C 
BRANCH  13  14
ATOM     14  O4  UNL A   1      31.042   9.627 138.571  0.00  0.00    +0.000 OA
ATOM     15  H24 UNL A   1      30.443  10.328 138.878  0.00  0.00    +0.000 HD
ENDBRANCH  13  14
BRANCH  13  16
ATOM     16  C26 UNL A   1      32.999  10.390 139.774  0.00  0.00    +0.000 C 
BRANCH  16  17
ATOM     17  C27 UNL A   1      32.442  11.742 140.127  0.00  0.00    +0.000 C 
ATOM     18  O5  UNL A   1      32.888  12.832 139.813  0.00  0.00    +0.000 OA
BRANCH  17  19
ATOM     19  O6  UNL A   1      31.350  11.663 140.917  0.00  0.00    +0.000 OA
ATOM     20  H27 UNL A   1      30.808  10.958 140.502  0.00  0.00    +0.000 HD
ENDBRANCH  17  19
ENDBRANCH  16  17
ENDBRANCH  13  16
ENDBRANCH  12  13
ENDBRANCH  10  12
ENDBRANCH   9  10
ENDBRANCH   1   9
BRANCH   4  21
ATOM     21  O1  UNL A   1      33.708  11.518 133.520  0.00  0.00    +0.000 OA
BRANCH  21  22
ATOM     22  C6  UNL A   1      32.576  12.347 133.267  0.00  0.00    +0.000 C 
BRANCH  22  23
ATOM     23  C7  UNL A   1      33.058  13.756 132.989  0.00  0.00    +0.000 A 
ATOM     24  C8  UNL A   1      32.356  14.645 132.134  0.00  0.00    +0.000 A 
ATOM     25  C9  UNL A   1      31.083  14.208 131.443  0.00  0.00    +0.000 C 
ATOM     26  C10 UNL A   1      32.884  15.940 131.884  0.00  0.00    +0.000 A 
ATOM     27  C19 UNL A   1      34.072  16.329 132.526  0.00  0.00    +0.000 A 
ATOM     28  C20 UNL A   1      34.747  15.462 133.382  0.00  0.00    +0.000 A 
ATOM     29  C21 UNL A   1      34.246  14.185 133.606  0.00  0.00    +0.000 A 
BRANCH  26  30
ATOM     30  C11 UNL A   1      32.236  16.893 130.968  0.00  0.00    +0.000 A 
ATOM     31  C12 UNL A   1      32.810  17.195 129.725  0.00  0.00    +0.000 A 
ATOM     32  C13 UNL A   1      32.214  18.132 128.881  0.00  0.00    +0.000 A 
ATOM     33  O2  UNL A   1      32.869  18.412 127.708  0.00  0.00    +0.000 OA
ATOM     34  C14 UNL A   1      32.416  19.651 127.155  0.00  0.00    +0.000 C 
ATOM     35  C15 UNL A   1      30.898  19.690 127.128  0.00  0.00    +0.000 C 
ATOM     36  O3  UNL A   1      30.364  19.663 128.458  0.00  0.00    +0.000 OA
ATOM     37  C16 UNL A   1      31.014  18.746 129.247  0.00  0.00    +0.000 A 
ATOM     38  C17 UNL A   1      30.423  18.446 130.469  0.00  0.00    +0.000 A 
ATOM     39  C18 UNL A   1      31.030  17.524 131.324  0.00  0.00    +0.000 A 
ENDBRANCH  26  30
ENDBRANCH  22  23
ENDBRANCH  21  22
ENDBRANCH   4  21
TORSDOF 12
ENDMDL
