REMARK  Name = ./output_folder/5n2f_ligand.pdb
REMARK  13 active torsions:
REMARK  status: ('A' for Active; 'I' for Inactive)
REMARK    1  A    between atoms: N1_1  and  C1_2
REMARK    2  A    between atoms: N1_1  and  C24_30
REMARK    3  A    between atoms: C1_2  and  C2_3
REMARK    4  A    between atoms: C5_6  and  O1_7
REMARK    5  A    between atoms: O1_7  and  C6_8
REMARK    6  A    between atoms: C6_8  and  C7_9
REMARK    7  A    between atoms: C8_10  and  C9_11
REMARK    8  A    between atoms: C10_12  and  C11_13
REMARK    9  A    between atoms: C24_30  and  C25_31
REMARK   10  A    between atoms: C25_31  and  O4_32
REMARK   11  A    between atoms: C25_31  and  C26_33
REMARK   12  A    between atoms: C26_33  and  C27_34
REMARK   13  A    between atoms: C27_34  and  O6_36
REMARK                            x       y       z     vdW  Elec       q    Type
REMARK                         _______ _______ _______ _____ _____    ______ ____
ROOT
ATOM      1  C2  UNL     1       3.860   0.347  -0.856  0.00  0.00    +0.000 A 
ATOM      2  C3  UNL     1       3.432   0.355   0.476  0.00  0.00    +0.000 A 
ATOM      3  C4  UNL     1       2.124   0.694   0.827  0.00  0.00    +0.000 A 
ATOM      4  C5  UNL     1       1.205   1.027  -0.168  0.00  0.00    +0.000 A 
ATOM      5  C22 UNL     1       1.629   1.020  -1.501  0.00  0.00    +0.000 A 
ATOM      6  C23 UNL     1       2.939   0.693  -1.850  0.00  0.00    +0.000 A 
ATOM      7  F1  UNL     1       0.768   1.334  -2.482  0.00  0.00    +0.000 F 
ATOM      8  F2  UNL     1       4.292   0.043   1.460  0.00  0.00    +0.000 F 
ENDROOT
BRANCH   1   9
ATOM      9  C1  UNL     1       5.288   0.011  -1.199  0.00  0.00    +0.000 C 
BRANCH   9  10
ATOM     10  N1  UNL     1       6.163   1.148  -0.916  0.00  0.00    +0.000 NA
ATOM     11  H1  UNL     1       5.863   1.921  -1.512  0.00  0.00    +0.000 HD
BRANCH  10  12
ATOM     12  C24 UNL     1       7.571   0.859  -1.211  0.00  0.00    +0.000 C 
BRANCH  12  13
ATOM     13  C25 UNL     1       8.408   0.438   0.017  0.00  0.00    +0.000 C 
BRANCH  13  14
ATOM     14  O4  UNL     1       9.794   0.430  -0.351  0.00  0.00    +0.000 OA
ATOM     15  H24 UNL     1      10.314   0.334   0.465  0.00  0.00    +0.000 HD
ENDBRANCH  13  14
BRANCH  13  16
ATOM     16  C26 UNL     1       8.043  -0.887   0.677  0.00  0.00    +0.000 C 
BRANCH  16  17
ATOM     17  C27 UNL     1       8.175  -2.067  -0.246  0.00  0.00    +0.000 C 
ATOM     18  O5  UNL     1       7.682  -2.201  -1.353  0.00  0.00    +0.000 OA
BRANCH  17  19
ATOM     19  O6  UNL     1       8.898  -3.070   0.296  0.00  0.00    +0.000 OA
ATOM     20  H27 UNL     1       8.927  -3.750  -0.411  0.00  0.00    +0.000 HD
ENDBRANCH  17  19
ENDBRANCH  16  17
ENDBRANCH  13  16
ENDBRANCH  12  13
ENDBRANCH  10  12
ENDBRANCH   9  10
ENDBRANCH   1   9
BRANCH   4  21
ATOM     21  O1  UNL     1      -0.103   1.368   0.038  0.00  0.00    +0.000 OA
BRANCH  21  22
ATOM     22  C6  UNL     1      -0.568   1.414   1.385  0.00  0.00    +0.000 C 
BRANCH  22  23
ATOM     23  C7  UNL     1      -2.052   1.720   1.377  0.00  0.00    +0.000 A 
ATOM     24  C8  UNL     1      -3.011   0.820   0.845  0.00  0.00    +0.000 A 
ATOM     25  C9  UNL     1      -2.581  -0.499   0.241  0.00  0.00    +0.000 C 
ATOM     26  C10 UNL     1      -4.384   1.186   0.832  0.00  0.00    +0.000 A 
ATOM     27  C19 UNL     1      -4.767   2.419   1.388  0.00  0.00    +0.000 A 
ATOM     28  C20 UNL     1      -3.826   3.290   1.930  0.00  0.00    +0.000 A 
ATOM     29  C21 UNL     1      -2.479   2.945   1.918  0.00  0.00    +0.000 A 
BRANCH  26  30
ATOM     30  C11 UNL     1      -5.425   0.324   0.249  0.00  0.00    +0.000 A 
ATOM     31  C12 UNL     1      -6.323  -0.371   1.072  0.00  0.00    +0.000 A 
ATOM     32  C13 UNL     1      -7.278  -1.221   0.515  0.00  0.00    +0.000 A 
ATOM     33  O2  UNL     1      -8.081  -1.907   1.391  0.00  0.00    +0.000 OA
ATOM     34  C14 UNL     1      -8.696  -3.027   0.748  0.00  0.00    +0.000 C 
ATOM     35  C15 UNL     1      -9.316  -2.600  -0.571  0.00  0.00    +0.000 C 
ATOM     36  O3  UNL     1      -8.307  -2.156  -1.488  0.00  0.00    +0.000 OA
ATOM     37  C16 UNL     1      -7.380  -1.353  -0.872  0.00  0.00    +0.000 A 
ATOM     38  C17 UNL     1      -6.508  -0.658  -1.703  0.00  0.00    +0.000 A 
ATOM     39  C18 UNL     1      -5.537   0.177  -1.145  0.00  0.00    +0.000 A 
ENDBRANCH  26  30
ENDBRANCH  22  23
ENDBRANCH  21  22
ENDBRANCH   4  21
TORSDOF 12
