MODEL 1
REMARK VINA RESULT:      -6.5      0.000      0.000
REMARK  Name = ./output_folder/7bqy_ligand.pdb
REMARK  26 active torsions:
REMARK  status: ('A' for Active; 'I' for Inactive)
REMARK    1  A    between atoms: C1_2  and  C2_3
REMARK    2  A    between atoms: N2_5  and  C3_6
REMARK    3  A    between atoms: C3_6  and  C4_7
REMARK    4  A    between atoms: C3_6  and  C32_45
REMARK    5  A    between atoms: N3_9  and  C5_10
REMARK    6  A    between atoms: C5_10  and  C6_11
REMARK    7  A    between atoms: C5_10  and  C29_42
REMARK    8  A    between atoms: N4_13  and  C7_14
REMARK    9  A    between atoms: C7_14  and  C8_15
REMARK   10  A    between atoms: C7_14  and  C25_38
REMARK   11  A    between atoms: N5_17  and  C9_18
REMARK   12  A    between atoms: C9_18  and  C10_19
REMARK   13  A    between atoms: C9_18  and  C20_31
REMARK   14  A    between atoms: C10_19  and  C11_20
REMARK   15  A    between atoms: C11_20  and  C12_21
REMARK   16  A    between atoms: C12_21  and  O5_22
REMARK   17  A    between atoms: C12_21  and  O6_23
REMARK   18  A    between atoms: O6_23  and  C13_24
REMARK   19  A    between atoms: C13_24  and  C14_25
REMARK   20  A    between atoms: C20_31  and  C21_32
REMARK   21  A    between atoms: C25_38  and  C26_39
REMARK   22  A    between atoms: C26_39  and  C27_40
REMARK   23  A    between atoms: C26_39  and  C28_41
REMARK   24  A    between atoms: C29_42  and  C30_43
REMARK   25  A    between atoms: C29_42  and  C31_44
REMARK   26  A    between atoms: C34_47  and  C35_48
REMARK                            x       y       z     vdW  Elec       q    Type
REMARK                         _______ _______ _______ _____ _____    ______ ____
ROOT
ATOM      1  C7  UNL A   1       7.967   0.027  21.354  0.00  0.00    +0.000 C 
ENDROOT
BRANCH   1   4
ATOM      2  C6  UNL A   1       8.869   2.133  22.369  0.00  0.00    +0.000 C 
ATOM      3  O3  UNL A   1       7.875   2.335  23.060  0.00  0.00    +0.000 OA
ATOM      4  N4  UNL A   1       8.977   1.073  21.503  0.00  0.00    +0.000 N 
ATOM      5  H5  UNL A   1       9.841   0.900  21.000  0.00  0.00    +0.000 HD
BRANCH   2   6
ATOM      6  C5  UNL A   1      10.085   3.097  22.376  0.00  0.00    +0.000 C 
BRANCH   6   9
ATOM      7  C4  UNL A   1      12.391   2.365  22.838  0.00  0.00    +0.000 C 
ATOM      8  O2  UNL A   1      12.487   3.103  23.817  0.00  0.00    +0.000 OA
ATOM      9  N3  UNL A   1      11.288   2.349  22.012  0.00  0.00    +0.000 N 
ATOM     10  H3  UNL A   1      11.117   1.478  21.526  0.00  0.00    +0.000 HD
BRANCH   7  11
ATOM     11  C3  UNL A   1      13.506   1.385  22.429  0.00  0.00    +0.000 C 
ATOM     12  C32 UNL A   1      14.406   1.972  21.353  0.00  0.00    +0.000 C 
BRANCH  11  15
ATOM     13  C2  UNL A   1      13.334  -1.087  22.288  0.00  0.00    +0.000 C 
ATOM     14  O1  UNL A   1      14.399  -1.229  22.887  0.00  0.00    +0.000 OA
ATOM     15  N2  UNL A   1      12.859   0.166  21.963  0.00  0.00    +0.000 N 
ATOM     16  H1  UNL A   1      11.931   0.282  21.573  0.00  0.00    +0.000 HD
BRANCH  13  18
ATOM     17  N1  UNL A   1      12.081  -3.139  22.746  0.00  0.00    +0.000 NA
ATOM     18  C1  UNL A   1      12.486  -2.213  21.861  0.00  0.00    +0.000 A 
ATOM     19  C33 UNL A   1      11.984  -2.524  20.565  0.00  0.00    +0.000 A 
ATOM     20  C34 UNL A   1      11.250  -3.669  20.740  0.00  0.00    +0.000 A 
ATOM     21  C35 UNL A   1      10.449  -4.523  19.849  0.00  0.00    +0.000 C 
ATOM     22  O8  UNL A   1      11.313  -4.043  22.041  0.00  0.00    +0.000 OA
ENDBRANCH  13  18
ENDBRANCH  11  15
ENDBRANCH   7  11
ENDBRANCH   6   9
BRANCH   6  23
ATOM     23  C29 UNL A   1       9.863   4.321  21.454  0.00  0.00    +0.000 C 
ATOM     24  C30 UNL A   1      10.600   5.542  22.012  0.00  0.00    +0.000 C 
ATOM     25  C31 UNL A   1      10.291   4.074  20.004  0.00  0.00    +0.000 C 
ENDBRANCH   6  23
ENDBRANCH   2   6
ENDBRANCH   1   4
BRANCH   1  26
ATOM     26  C8  UNL A   1       8.071  -0.877  22.606  0.00  0.00    +0.000 C 
ATOM     27  O4  UNL A   1       9.055  -1.592  22.805  0.00  0.00    +0.000 OA
ATOM     28  N5  UNL A   1       7.009  -0.813  23.479  0.00  0.00    +0.000 N 
ATOM     29  H7  UNL A   1       6.441   0.032  23.429  0.00  0.00    +0.000 HD
BRANCH  28  30
ATOM     30  C9  UNL A   1       6.992  -1.544  24.738  0.00  0.00    +0.000 C 
BRANCH  30  31
ATOM     31  C10 UNL A   1       6.545  -2.992  24.493  0.00  0.00    +0.000 C 
BRANCH  31  32
ATOM     32  C11 UNL A   1       7.296  -4.027  25.339  0.00  0.00    +0.000 C 
BRANCH  32  33
ATOM     33  C12 UNL A   1       8.820  -3.968  25.189  0.00  0.00    +0.000 C 
BRANCH  33  34
ATOM     34  O5  UNL A   1       9.143  -4.182  23.826  0.00  0.00    +0.000 OA
ATOM     35  H14 UNL A   1       8.717  -5.023  23.597  0.00  0.00    +0.000 HD
ENDBRANCH  33  34
BRANCH  33  36
ATOM     36  O6  UNL A   1       9.398  -5.034  25.925  0.00  0.00    +0.000 OA
BRANCH  36  37
ATOM     37  C13 UNL A   1      10.742  -5.321  25.549  0.00  0.00    +0.000 C 
BRANCH  37  38
ATOM     38  C14 UNL A   1      11.722  -4.765  26.552  0.00  0.00    +0.000 A 
ATOM     39  C15 UNL A   1      12.931  -4.192  26.126  0.00  0.00    +0.000 A 
ATOM     40  C16 UNL A   1      13.852  -3.704  27.054  0.00  0.00    +0.000 A 
ATOM     41  C17 UNL A   1      13.578  -3.793  28.419  0.00  0.00    +0.000 A 
ATOM     42  C18 UNL A   1      12.384  -4.367  28.853  0.00  0.00    +0.000 A 
ATOM     43  C19 UNL A   1      11.462  -4.852  27.924  0.00  0.00    +0.000 A 
ENDBRANCH  37  38
ENDBRANCH  36  37
ENDBRANCH  33  36
ENDBRANCH  32  33
ENDBRANCH  31  32
ENDBRANCH  30  31
BRANCH  30  44
ATOM     44  C20 UNL A   1       6.207  -0.766  25.818  0.00  0.00    +0.000 C 
BRANCH  44  45
ATOM     45  C21 UNL A   1       6.356   0.757  25.928  0.00  0.00    +0.000 C 
ATOM     46  C22 UNL A   1       6.863   1.260  27.286  0.00  0.00    +0.000 C 
ATOM     47  C23 UNL A   1       6.503   2.733  27.259  0.00  0.00    +0.000 C 
ATOM     48  N6  UNL A   1       5.269   2.743  26.529  0.00  0.00    +0.000 N 
ATOM     49  C24 UNL A   1       5.141   1.645  25.705  0.00  0.00    +0.000 C 
ATOM     50  O7  UNL A   1       4.235   1.467  24.910  0.00  0.00    +0.000 OA
ATOM     51  H29 UNL A   1       4.625   3.523  26.453  0.00  0.00    +0.000 HD
ENDBRANCH  44  45
ENDBRANCH  30  44
ENDBRANCH  28  30
ENDBRANCH   1  26
BRANCH   1  52
ATOM     52  C25 UNL A   1       8.062  -0.736  20.022  0.00  0.00    +0.000 C 
BRANCH  52  53
ATOM     53  C26 UNL A   1       8.905  -0.084  18.904  0.00  0.00    +0.000 C 
ATOM     54  C27 UNL A   1       7.979   0.714  17.980  0.00  0.00    +0.000 C 
ATOM     55  C28 UNL A   1       9.699  -1.098  18.081  0.00  0.00    +0.000 C 
ENDBRANCH  52  53
ENDBRANCH   1  52
TORSDOF 20
ENDMDL
